*KEYWORD
*TITLE
CNRB to Solid Example
*NODE
       1       50.000000       50.000000        5.000000       0       0
       2       53.000000       50.000000        0.000000       0       0
       3       52.121320       52.121320        0.000000       0       0
       4       50.000000       53.000000        0.000000       0       0
       5       47.878680       52.121320        0.000000       0       0
       6       47.000000       50.000000        0.000000       0       0
       7       47.878680       47.878680        0.000000       0       0
       8       50.000000       47.000000        0.000000       0       0
       9       52.121320       47.878680        0.000000       0       0
      10       53.000000       50.000000        5.000000       0       0
      11       52.121320       52.121320        5.000000       0       0
      12       50.000000       53.000000        5.000000       0       0
      13       47.878680       52.121320        5.000000       0       0
      14       47.000000       50.000000        5.000000       0       0
      15       47.878680       47.878680        5.000000       0       0
      16       50.000000       47.000000        5.000000       0       0
      17       52.121320       47.878680        5.000000       0       0
      18       53.000000       50.000000       10.000000       0       0
      19       52.121320       52.121320       10.000000       0       0
      20       50.000000       53.000000       10.000000       0       0
$ ... 5 like lines cut
*ELEMENT_SHELL
       1       1       2       3      11      10
       2       1       3       4      12      11
       3       1       4       5      13      12
       4       1       5       6      14      13
       5       1       6       7      15      14
       6       1       7       8      16      15
       7       1       8       9      17      16
       8       1       9       2      10      17
       9       1      10      11      19      18
      10       1      11      12      20      19
      11       1      12      13      21      20
      12       1      13      14      22      21
      13       1      14      15      23      22
      14       1      15      16      24      23
      15       1      16      17      25      24
      16       1      17      10      18      25
*PART
Shell_Structure
         1         1         1
*SECTION_SHELL
         1         2
    0.5000    0.5000    0.5000    0.5000
*MAT_ELASTIC
         1    7850.0200000000000.0    0.3000
*SET_NODE_LIST_TITLE
CNRB_NodeSet
         1       0.0       0.0       0.0       0.0
         2         3         4         5         6         7         8         9
        10        11        12        13        14        15        16        17
        18        19        20        21        22        23        24        25
*CONSTRAINED_NODAL_RIGID_BODY_TITLE
                                                                       Bolt_CNRB
       200         0         1         1         0         0         0
*CONTROL_TERMINATION
1.0000e-03         01.0000e-100.0000e+001.0000e+07         0
*END
