*KEYWORD
*TITLE
CNRB to Solid Example
*CONTROL_TERMINATION
$$  ENDTIM    ENDCYC     DTMIN     ENDENG     ENDMAS     NOSOL
 1.000e-03         0 1.000e-10 0.000e+00 1.000e+07         0
*CONTACT_TIED_SURFACE_TO_SURFACE_OFFSET_ID
$$     CID      NAME
         1                                                           Tied_CNRB_1
$$    SSID      MSID     SSTYP     MSTYP    SBOXID    MBOXID       SPR       MPR
         2       200         4         3         0         0         0         0
$$      FS        FD        DC        VC       VDC    PENCHK        BT        DT
       0.0       0.0       0.0       0.0       0.0         0       0.01.0000E+20
$$     SFS       SFM       SST       MST      SFST      SFMT       FSF       VSF
       1.0       1.0       0.0       0.0       1.0       1.0       1.0       1.0
*MAT_ELASTIC_TITLE
Elastic1
         1 7.850e+03 2.000e+09 0.000e+00
*MAT_ELASTIC_TITLE
CNRB_Material
         2 7.850e+03 2.000e+11 3.000e-01
*SECTION_SHELL_TITLE
Section1
         1         2 1.000e+00 2.000e+00 0.000e+00 0.000e+00         0         1
 5.000e-01 5.000e-01 5.000e-01 5.000e-01 0.000e+00 0.000e+00 0.000e+00          
*SECTION_SOLID_TITLE
CNRB_Solid
         2         1                                                            
*PART
Shell_Structure
$$     PID     SECID       MID     EOSID      HGID      GRAV    ADPOPT      TMID
         1         1         1                                                  
*ELEMENT_SHELL
       1       1       2       3      11      10       0       0       0       0
       2       1       3       4      12      11       0       0       0       0
       3       1       4       5      13      12       0       0       0       0
       4       1       5       6      14      13       0       0       0       0
       5       1       6       7      15      14       0       0       0       0
       6       1       7       8      16      15       0       0       0       0
       7       1       8       9      17      16       0       0       0       0
       8       1       9       2      10      17       0       0       0       0
       9       1      10      11      19      18       0       0       0       0
      10       1      11      12      20      19       0       0       0       0
      11       1      12      13      21      20       0       0       0       0
      12       1      13      14      22      21       0       0       0       0
      13       1      14      15      23      22       0       0       0       0
      14       1      15      16      24      23       0       0       0       0
      15       1      16      17      25      24       0       0       0       0
      16       1      17      10      18      25       0       0       0       0
*PART
CNRB_1_Solid
$$     PID     SECID       MID     EOSID      HGID      GRAV    ADPOPT      TMID
       200         2         2                                                  
*ELEMENT_SOLID
       1     200      34      37      38      35      51      54      55      52
       2     200      35      38      39      36      52      55      56      53
       3     200      37      40      41      38      54      57      58      55
       4     200      38      41      42      39      55      58      59      56
       5     200      26      27      37      34      43      44      54      51
       6     200      27      28      40      37      44      45      57      54
       7     200      28      29      41      40      45      46      58      57
       8     200      29      30      42      41      46      47      59      58
       9     200      30      31      39      42      47      48      56      59
      10     200      31      32      36      39      48      49      53      56
      11     200      32      33      35      36      49      50      52      53
      12     200      33      26      34      35      50      43      51      52
      13     200      51      54      55      52      68      71      72      69
      14     200      52      55      56      53      69      72      73      70
      15     200      54      57      58      55      71      74      75      72
      16     200      55      58      59      56      72      75      76      73
      17     200      43      44      54      51      60      61      71      68
      18     200      44      45      57      54      61      62      74      71
      19     200      45      46      58      57      62      63      75      74
      20     200      46      47      59      58      63      64      76      75
$ ... 4 like lines cut
*NODE
$$   NID               X               Y               Z      TC      RC
       2  5.30000000e+01  5.00000000e+01  0.00000000e+00     0.0     0.0
       3  5.21213200e+01  5.21213200e+01  0.00000000e+00     0.0     0.0
       4  5.00000000e+01  5.30000000e+01  0.00000000e+00     0.0     0.0
       5  4.78786800e+01  5.21213200e+01  0.00000000e+00     0.0     0.0
       6  4.70000000e+01  5.00000000e+01  0.00000000e+00     0.0     0.0
       7  4.78786800e+01  4.78786800e+01  0.00000000e+00     0.0     0.0
       8  5.00000000e+01  4.70000000e+01  0.00000000e+00     0.0     0.0
       9  5.21213200e+01  4.78786800e+01  0.00000000e+00     0.0     0.0
      10  5.30000000e+01  5.00000000e+01  5.00000000e+00     0.0     0.0
      11  5.21213200e+01  5.21213200e+01  5.00000000e+00     0.0     0.0
      12  5.00000000e+01  5.30000000e+01  5.00000000e+00     0.0     0.0
      13  4.78786800e+01  5.21213200e+01  5.00000000e+00     0.0     0.0
      14  4.70000000e+01  5.00000000e+01  5.00000000e+00     0.0     0.0
      15  4.78786800e+01  4.78786800e+01  5.00000000e+00     0.0     0.0
      16  5.00000000e+01  4.70000000e+01  5.00000000e+00     0.0     0.0
      17  5.21213200e+01  4.78786800e+01  5.00000000e+00     0.0     0.0
      18  5.30000000e+01  5.00000000e+01  1.00000000e+01     0.0     0.0
      19  5.21213200e+01  5.21213200e+01  1.00000000e+01     0.0     0.0
      20  5.00000000e+01  5.30000000e+01  1.00000000e+01     0.0     0.0
      21  4.78786800e+01  5.21213200e+01  1.00000000e+01     0.0     0.0
$ ... 55 like lines cut
*SET_NODE_LIST
$$     NID       da1       da2       da3       da4    SOLVER       ITS
         10.0000e+000.0000e+000.0000e+000.0000e+00                   0
$$    NIDi    NIDi+1    NIDi+2    NIDi+3    NIDi+4    NIDi+5    NIDi+6    NIDi+7
         2         3         4         5         6         7         8         9
        10        11        12        13        14        15        16        17
        18        19        20        21        22        23        24        25
*SET_NODE_LIST
$$     NID       da1       da2       da3       da4    SOLVER       ITS
         20.0000e+000.0000e+000.0000e+000.0000e+00      MECH         0
$$    NIDi    NIDi+1    NIDi+2    NIDi+3    NIDi+4    NIDi+5    NIDi+6    NIDi+7
         2         3         4         5         6         7         8         9
        10        11        12        13        14        15        16        17
        18        19        20        21        22        23        24        25
*END
