*KEYWORD
*TITLE
CNRB to Solid - Stepped Cylinder (Two R)
*CONTROL_TERMINATION
$$  ENDTIM    ENDCYC     DTMIN     ENDENG     ENDMAS     NOSOL
 1.000e-03         0 1.000e-10 0.000e+00 1.000e+07         0
*CONTACT_TIED_SURFACE_TO_SURFACE_OFFSET_ID
$$     CID      NAME
         1                                                           Tied_CNRB_1
$$    SSID      MSID     SSTYP     MSTYP    SBOXID    MBOXID       SPR       MPR
         2       300         4         3         0         0         0         0
$$      FS        FD        DC        VC       VDC    PENCHK        BT        DT
       0.0       0.0       0.0       0.0       0.0         0       0.01.0000E+20
$$     SFS       SFM       SST       MST      SFST      SFMT       FSF       VSF
       1.0       1.0       0.0       0.0       1.0       1.0       1.0       1.0
*MAT_ELASTIC_TITLE
Elastic1
         1 7.850e+03 2.000e+09 0.000e+00
*MAT_ELASTIC_TITLE
CNRB_Material
         2 7.850e+03 2.000e+11 3.000e-01
*SECTION_SOLID_TITLE
CNRB_Solid
         1         1                                                            
*PART
CNRB_1_Solid
$$     PID     SECID       MID     EOSID      HGID      GRAV    ADPOPT      TMID
       300         1         2                                                  
*ELEMENT_SOLID
       1     300      63      67      68      64     115     119     120     116
       2     300      64      68      69      65     116     120     121     117
       3     300      65      69      70      66     117     121     122     118
       4     300      67      71      72      68     119     123     124     120
       5     300      68      72      73      69     120     124     125     121
       6     300      69      73      74      70     121     125     126     122
       7     300      71      75      76      72     123     127     128     124
       8     300      72      76      77      73     124     128     129     125
       9     300      73      77      78      74     125     129     130     126
      10     300      79      80      67      63     131     132     119     115
      11     300      80      81      71      67     132     133     123     119
      12     300      81      82      75      71     133     134     127     123
      13     300      82      83      76      75     134     135     128     127
      14     300      83      84      77      76     135     136     129     128
      15     300      84      85      78      77     136     137     130     129
      16     300      85      86      74      78     137     138     126     130
      17     300      86      87      70      74     138     139     122     126
      18     300      87      88      66      70     139     140     118     122
      19     300      88      89      65      66     140     141     117     118
      20     300      89      90      64      65     141     142     116     117
$ ... 223 like lines cut
*NODE
$$   NID               X               Y               Z      TC      RC
       2  2.64519360e+01  3.00404980e+01  0.00000000e+00     0.0     0.0
       3  2.59688240e+01  3.11086520e+01  0.00000000e+00     0.0     0.0
       4  2.45927130e+01  3.14619980e+01  0.00000000e+00     0.0     0.0
       5  2.36402110e+01  3.05279800e+01  0.00000000e+00     0.0     0.0
       6  2.36812260e+01  2.93900940e+01  0.00000000e+00     0.0     0.0
       7  2.45843500e+01  2.85581810e+01  0.00000000e+00     0.0     0.0
       8  2.58036930e+01  2.87692950e+01  0.00000000e+00     0.0     0.0
       9  2.65038180e+01  3.00450930e+01  1.30000000e+00     0.0     0.0
      10  2.58263100e+01  3.12625650e+01  1.30000000e+00     0.0     0.0
      11  2.41983660e+01  3.12090360e+01  1.30000000e+00     0.0     0.0
      12  2.34830280e+01  2.99071000e+01  1.30000000e+00     0.0     0.0
      13  2.42270560e+01  2.87548540e+01  1.30000000e+00     0.0     0.0
      14  2.58560600e+01  2.87882220e+01  1.30000000e+00     0.0     0.0
      15  2.64548320e+01  2.98812400e+01  2.70000000e+00     0.0     0.0
      16  2.59912520e+01  3.11395810e+01  2.70000000e+00     0.0     0.0
      17  2.49065090e+01  3.15201010e+01  2.70000000e+00     0.0     0.0
      18  2.38979870e+01  3.10861580e+01  2.70000000e+00     0.0     0.0
      19  2.34952400e+01  3.00365630e+01  2.70000000e+00     0.0     0.0
      20  2.40036570e+01  2.88629000e+01  2.70000000e+00     0.0     0.0
      21  2.51089770e+01  2.84962080e+01  2.70000000e+00     0.0     0.0
$ ... 457 like lines cut
*SET_NODE_LIST
$$     NID       da1       da2       da3       da4    SOLVER       ITS
         10.0000e+000.0000e+000.0000e+000.0000e+00                   0
$$    NIDi    NIDi+1    NIDi+2    NIDi+3    NIDi+4    NIDi+5    NIDi+6    NIDi+7
         2         3         4         5         6         7         8         9
        10        11        12        13        14        15        16        17
        18        19        20        21        22        23        24        25
        26        27        28        29        30        31        32        33
        34        35        36        37        38        39        40        41
        42        43        44        45        46        47        48        49
        50        51        52        53        54        55        56        57
        58        59        60        61        62
*SET_NODE_LIST
$$     NID       da1       da2       da3       da4    SOLVER       ITS
         20.0000e+000.0000e+000.0000e+000.0000e+00      MECH         0
$$    NIDi    NIDi+1    NIDi+2    NIDi+3    NIDi+4    NIDi+5    NIDi+6    NIDi+7
         2         3         4         5         6         7         8         9
        10        11        12        13        14        15        16        17
        18        19        20        21        22        23        24        25
        26        27        28        29        30        31        32        33
        34        35        36        37        38        39        40        41
        42        43        44        45        46        47        48        49
        50        51        52        53        54        55        56        57
        58        59        60        61        62
*END
