$  ----------------------------------------------------------------------
$ Copyright (C) 2023 Koo
$ This is a pre-processing script for LS-DYNA
$  ----------------------------------------------------------------------
*TITLE
$$  TITLE
CNRB to Solid - Stepped Cylinder (Two R)
*CONSTRAINED_NODAL_RIGID_BODY_TITLE
$$                                                                 TITLE
                                                                    Bolt_Stepped
$$     PID       CID      NSID     PNODE      IPRT    DRFLAG    RRFLAG
       300         0         1         1         0         0         0          
*CONTROL_TERMINATION
$$  ENDTIM    ENDCYC     DTMIN    ENDENG    ENDMAS     NOSOL
1.0000e-03         01.0000e-100.0000e+001.0000e+07         0
*MAT_ELASTIC
$$     MID        RO         E        PR        DA        DB         K
         1    7850.0200000000000.0    0.      3000                    
$$ 1st Node List
*NODE
$$   NID               X               Y               Z      TC      RC
       1       25.000000       30.000000        5.000000       0       0
       2       26.451936       30.040498        0.000000       0       0
       3       25.968824       31.108652        0.000000       0       0
       4       24.592713       31.461998        0.000000       0       0
       5       23.640211       30.527980        0.000000       0       0
       6       23.681226       29.390094        0.000000       0       0
       7       24.584350       28.558181        0.000000       0       0
       8       25.803693       28.769295        0.000000       0       0
       9       26.503818       30.045093        1.300000       0       0
      10       25.826310       31.262565        1.300000       0       0
      11       24.198366       31.209036        1.300000       0       0
      12       23.483028       29.907100        1.300000       0       0
      13       24.227056       28.754854        1.300000       0       0
      14       25.856060       28.788222        1.300000       0       0
      15       26.454832       29.881240        2.700000       0       0
      16       25.991252       31.139581        2.700000       0       0
      17       24.906509       31.520101        2.700000       0       0
      18       23.897987       31.086158        2.700000       0       0
      19       23.495240       30.036563        2.700000       0       0
      20       24.003657       28.862900        2.700000       0       0
$ ... 42 like lines cut
*SET_NODE_LIST_TITLE
CNRB_SteppedCylinder
$#     SID       DA1       DA2       DA3       DA4    SOLVER       ITS
         1       0.0       0.0       0.0       0.0                    
$    NSID1     NSID2     NSID3     NSID4     NSID5     NSID6     NSID7     NSID8
         2         3         4         5         6         7         8         9
        10        11        12        13        14        15        16        17
        18        19        20        21        22        23        24        25
        26        27        28        29        30        31        32        33
        34        35        36        37        38        39        40        41
        42        43        44        45        46        47        48        49
        50        51        52        53        54        55        56        57
        58        59        60        61        62         0         0         0
*END
