$# LS-DYNA Keyword file created by WB-LSDYNA 2025 R2
*KEYWORD
*PARAMETER_DUPLICATION
4
*DATABASE_FORMAT
$    iform   ibinary                                                      unused
         0         0                                                            
*CONTROL_TERMINATION
$   endtim    endcyc     dtmin    endeng    endmas                        unused
     0.005  10000000     0.001         0    100000                              
*CONTROL_TIMESTEP
$   dtinit    tssfac      isdo    tslimt     dt2ms      lctm     erode     ms1st
         0       0.9         0         0         0         0         1         0
$   dt2msf   dt2mslc     imscl                                            unused
         0         0         0                                                  
*CONTROL_CONTACT
$   slsfac    rwnpal    islchk    shlthk    penopt    thkchg     orien    enmass
         0         0         1         1         1         0         2         0
$   usrstr   usrfric     nsbcs    interm     xpene     ssthk      ecdt   tiedprj
         0         0         0         0         0         0         0         0
$    sfric     dfric       edc       vfc        th     th_sf    pen_sf    unused
         0         0         0         0         0         0         0          
$   ignore    frceng   skiprwg    outseg   spotstp   spotdel   spothin   unused1
         2         1         0         1         0         1       0.5          
$     isym    nserod    rwgaps    rwgdth     rwksf      icov    swradf    ithoff
         0         0         0         0         0         0         0         0
$   shledg    pstiff    ithcnt    tdcnof     ftall                       unused2
         1         0         0         0         1                              
*CONTROL_ENERGY
$     hgen      rwen    slnten     rylen                                  unused
         2         2         2         2                                        
*CONTROL_ACCURACY
$      osu       inn    pidosu                                            unused
         0         1         0                                                 0
*CONTROL_BULK_VISCOSITY
$       q1        q2      type                                            unused
       1.5      0.06        -2                                                  
*CONTROL_SOLID
$    esort    fmatrx   niptets    swlocl                                  unused
         1         0         0         0                                        
$    pm1     pm2     pm3     pm4     pm5     pm6     pm7     pm8     pm9    pm10
       0       0       0       0       0       0       0       0       0       0
$   tet13v     rinrt    coheqc                                           unused2
         1         0         0                                                  
*CONTROL_SHELL
$   wrpang     esort     irnxx    istupd    theory       bwc     miter      proj
        20         1        -1         4         2         1         1         1
$  rotascl    intgrd    lamsht    cstyp6    tshell    nfail1    nfail4   psnfail
         0         0         0         0         0         1         1         0
$   pstupd    irquad     cntco                                            unused
         0         0         2                                                  
*CONTROL_OUTPUT
$    npopt    neecho    nrefup    iaccop     opifs    ipnint    ikedit    iflush
         1         0         0         0         0         0         0         0
$    iprtf    ierode     tet10    msgmax    ipcurv                        unused
         0         0         0         0         0                              
*CONTROL_PARALLEL
$     ncpu    numrhs    consti      para                                  unused
         0         0         1         0                                        
*CONTROL_SOLUTION
$     soln       nlq     isnan     lcint                                  unused
         0         0         0         0                                        
*CONTROL_HOURGLASS
$      ihq        qh                                                     unused1
         5       0.1                                                            
*MAT_ELASTIC
$       ID        ro         E        pr        da        db         k   unused1
        23  2.33E-09    166000      0.33         0         0         0          
*MAT_ELASTIC
$       ID        ro         E        pr        da        db         k   unused1
        24   2.8E-09      5000       0.3         0         0         0          
*MAT_ELASTIC
$       ID        ro         E        pr        da        db         k   unused1
        25  2.77E-09     71000      0.33         0         0         0          
*MAT_ELASTIC
$       ID        ro         E        pr        da        db         k   unused1
        26  1.84E-09     20400      0.33         0         0         0          
*MAT_ELASTIC
$       ID        ro         E        pr        da        db         k   unused1
        27  2.33E-09    166000      0.33         0         0         0        
*SECTION_SOLID
$       ID    elform       aet                                           unused1
         1        13         0                                                  
$Material Id = {25,{20110EC7-29AE-4511-AED9-3353B34F849C}, Aluminum Alloy}
*PART
$                                                             partname   unused1
                                                           Front\Metal          
$       ID     secid       mid     eosid      hgid      grav     adopt      tmid
         1         1        25         0         0         0         0         0
*SECTION_SOLID
$       ID    elform       aet                                           unused1
         2         1         0                                                  
$Material Id = {25,{4A27990F-AADB-456E-BCFC-1A5549D351E8}, Aluminum Alloy}
*PART
$                                                             partname   unused1
                                                            Front\Wall          
$       ID     secid       mid     eosid      hgid      grav     adopt      tmid
         2         2        25         0         0         0         0         0
*SECTION_SOLID
$       ID    elform       aet                                           unused1
         3         1         0                                                  
$Material Id = {26,{5E3475BA-01AD-49D5-996C-CA4D5CECAB80}, FR-4}
*PART
$                                                             partname   unused1
                                                               PCB\PCB          
$       ID     secid       mid     eosid      hgid      grav     adopt      tmid
         3         3        26         0         0         0         0         0
*SECTION_SOLID
$       ID    elform       aet                                           unused1
         4         1         0                                                  
$Material Id = {27,{B2FB0E2A-6D64-4AC8-A5A2-28434D7B9042}, Silicon Anisotropic}
*PART
$                                                             partname   unused1
                                                             PKG\PKG 1          
$       ID     secid       mid     eosid      hgid      grav     adopt      tmid
         4         4        27         0         0         0         0         0
*SECTION_SOLID
$       ID    elform       aet                                           unused1
         5         1         0                                                  
$Material Id = {27,{EA61BCFC-7FCA-4672-9419-1DD2D901429F}, Silicon Anisotropic}
*PART
$                                                             partname   unused1
                                                             PKG\PKG 3          
$       ID     secid       mid     eosid      hgid      grav     adopt      tmid
         5         5        27         0         0         0         0         0
*SECTION_SOLID
$       ID    elform       aet                                           unused1
         6         1         0                                                  
$Material Id = {27,{5782B80F-0202-44A5-B4AE-AAA3A7834CF4}, Silicon Anisotropic}
*PART
$                                                             partname   unused1
                                                             PKG\PKG 4          
$       ID     secid       mid     eosid      hgid      grav     adopt      tmid
         6         6        27         0         0         0         0         0
*SECTION_SOLID
$       ID    elform       aet                                           unused1
         7         1         0                                                  
$Material Id = {27,{6D533B45-7BDB-4320-8E79-ADC0AEF2FF38}, Silicon Anisotropic}
*PART
$                                                             partname   unused1
                                                             PKG\PKG 5          
$       ID     secid       mid     eosid      hgid      grav     adopt      tmid
         7         7        27         0         0         0         0         0
*SECTION_SOLID
$       ID    elform       aet                                           unused1
         8         1         0                                                  
$Material Id = {27,{7B8A398B-7D7F-4E1B-9FB2-73CC8A72CBE1}, Silicon Anisotropic}
*PART
$                                                             partname   unused1
                                                             PKG\PKG 6          
$       ID     secid       mid     eosid      hgid      grav     adopt      tmid
         8         8        27         0         0         0         0         0
*SECTION_SOLID
$       ID    elform       aet                                           unused1
         9         1         0                                                  
$Material Id = {27,{5CE46788-0F0F-4D7F-8419-343E16B3C8EF}, Silicon Anisotropic}
*PART
$                                                             partname   unused1
                                                             PKG\PKG 7          
$       ID     secid       mid     eosid      hgid      grav     adopt      tmid
         9         9        27         0         0         0         0         0
*SECTION_SOLID
$       ID    elform       aet                                           unused1
        10         1         0                                                  
$Material Id = {27,{89161746-5BA4-4169-9E32-F83C965F2553}, Silicon Anisotropic}
*PART
$                                                             partname   unused1
                                                             PKG\PKG 8          
$       ID     secid       mid     eosid      hgid      grav     adopt      tmid
        10        10        27         0         0         0         0         0
*SECTION_SOLID
$       ID    elform       aet                                           unused1
        11         1         0                                                  
$Material Id = {27,{93A155A9-2F32-47F6-A994-0A0C4736680E}, Silicon Anisotropic}
*PART
$                                                             partname   unused1
                                                             PKG\PKG 9          
$       ID     secid       mid     eosid      hgid      grav     adopt      tmid
        11        11        27         0         0         0         0         0
*SECTION_SOLID
$       ID    elform       aet                                           unused1
        12         1         0                                                  
$Material Id = {27,{116380A9-4EC9-4F98-B428-2D410E3241A1}, Silicon Anisotropic}
*PART
$                                                             partname   unused1
                                                            PKG\PKG 10          
$       ID     secid       mid     eosid      hgid      grav     adopt      tmid
        12        12        27         0         0         0         0         0
*SECTION_SOLID
$       ID    elform       aet                                           unused1
        13         1         0                                                  
$Material Id = {27,{B85B33C6-3EE5-447E-8E2D-774690AAD7EF}, Silicon Anisotropic}
*PART
$                                                             partname   unused1
                                                            PKG\PKG 11          
$       ID     secid       mid     eosid      hgid      grav     adopt      tmid
        13        13        27         0         0         0         0         0
*SECTION_SOLID
$       ID    elform       aet                                           unused1
        14         1         0                                                  
$Material Id = {27,{FD22297B-CF75-4907-89BB-77AF731EFFF1}, Silicon Anisotropic}
*PART
$                                                             partname   unused1
                                                             PKG\PKG 2          
$       ID     secid       mid     eosid      hgid      grav     adopt      tmid
        14        14        27         0         0         0         0         0
*SECTION_SOLID
$       ID    elform       aet                                           unused1
        15         1         0                                                  
$Material Id = {26,{75958D69-FE8F-4350-B6DC-7A59ECBE6467}, FR-4}
*PART
$                                                             partname   unused1
                                                         SUBPCB\SUBPBA          
$       ID     secid       mid     eosid      hgid      grav     adopt      tmid
        15        15        26         0         0         0         0         0
*SECTION_SOLID
$       ID    elform       aet                                           unused1
        16         1         0                                                  
$Material Id = {27,{D708E0C1-52D5-4AAF-B460-4203BC70C673}, Silicon Anisotropic}
*PART
$                                                             partname   unused1
                                                            PKG\SUBPKG          
$       ID     secid       mid     eosid      hgid      grav     adopt      tmid
        16        16        27         0         0         0         0         0
*SECTION_SOLID
$       ID    elform       aet                                           unused1
        17         1         0                                                  
$Material Id = {27,{5F4E0B51-97BE-4C44-A362-2CF6778D9031}, Silicon Anisotropic}
*PART
$                                                             partname   unused1
                                                           PKG\SUBPKG2          
$       ID     secid       mid     eosid      hgid      grav     adopt      tmid
        17        17        27         0         0         0         0         0
*SECTION_SOLID
$       ID    elform       aet                                           unused1
        18         1         0                                                  
$Material Id = {27,{19AC8B56-9F89-400F-9CC5-FDA395D25A99}, Silicon Anisotropic}
*PART
$                                                             partname   unused1
                                                             PKG\Motor          
$       ID     secid       mid     eosid      hgid      grav     adopt      tmid
        18        18        27         0         0         0         0         0
*SECTION_SOLID
$       ID    elform       aet                                           unused1
        19         1         0                                                  
$Material Id = {27,{2607C8DB-B162-4E81-8BDD-89F753F10015}, Silicon Anisotropic}
*PART
$                                                             partname   unused1
                                                           PKG\SUBPKG3          
$       ID     secid       mid     eosid      hgid      grav     adopt      tmid
        19        19        27         0         0         0         0         0
*SECTION_SOLID
$       ID    elform       aet                                           unused1
        20         1         0                                                  
$Material Id = {25,{50258EF5-AB39-4D26-8320-786B9EE05C8D}, Aluminum Alloy}
*PART
$                                                             partname   unused1
                                                             Bond\Bond          
$       ID     secid       mid     eosid      hgid      grav     adopt      tmid
        20        20        25         0         0         0         0         0
*SECTION_SOLID
$       ID    elform       aet                                           unused1
        21         1         0                                                  
$Material Id = {23,{F32D0434-4180-46F9-9063-112571F58A2C}, Silicon Anisotropic}
*PART
$                                                             partname   unused1
                                                       Display\Display          
$       ID     secid       mid     eosid      hgid      grav     adopt      tmid
        21        21        23         0         0         0         0         0
*SECTION_SOLID
$       ID    elform       aet                                           unused1
        22         1         0                                                  
$Material Id = {24,{4C1AC95B-ABC7-42EA-9A1E-85EB4755F03F}, Battery}
*PART
$                                                             partname   unused1
                                                              Geom\솔리드          
$       ID     secid       mid     eosid      hgid      grav     adopt      tmid
        22        22        24         0         0         0         0         0
*NODE
   11946     12.50000000    124.50000000      3.40000000                        
   11947     14.50000000    124.50000000      3.40000000                        
   11948     14.50000000    124.50000000      2.80000000                        
   11949     12.50000000    124.50000000      2.80000000                        
   11950     12.50000000    126.00000000      2.80000000                        
   11951     14.50000000    126.00000000      2.80000000                        
   11952     16.50000000    126.00000000      2.80000000                        
   11953     16.50000000    124.50000000      2.80000000                        
   11954     16.50000000    123.00000000      2.80000000                        
   11955     14.50000000    123.00000000      2.80000000                        
   11956     12.50000000    123.00000000      2.80000000                        
   11957     10.50000000    123.00000000      2.80000000                        
   11958     10.50000000    124.50000000      2.80000000                        
   11959     10.50000000    126.00000000      2.80000000                        
   11960     10.50000000    124.50000000      3.40000000                        
   11961     10.50000000    126.00000000      3.40000000                        
   11962     10.50000000    123.00000000      3.40000000                        
   11963     12.50000000    123.00000000      3.40000000                        
   11964     14.50000000    123.00000000      3.40000000                        
   11965     16.50000000    123.00000000      3.40000000                        
$ ... 28273 like lines cut
*ELEMENT_SOLID
       1       1
    4615   10228    4616    9439    9439    9439    9439    9439
       2       1
     185    4615   10228    4616    4616    4616    4616    4616
       3       1
    4616    5506   10228    9445    9445    9445    9445    9445
       4       1
    4616   10228    5506    9439    9439    9439    9439    9439
       5       1
     185    4615    9091   10228   10228   10228   10228   10228
       6       1
     185   10228    9078   10223   10223   10223   10223   10223
       7       1
     185    4616   10228   10223   10223   10223   10223   10223
       8       1
    4616    9445   10228   10223   10223   10223   10223   10223
       9       1
    5506    9250   10228    9445    9445    9445    9445    9445
      10       1
    5506   10228    9250    9439    9439    9439    9439    9439
$ ... 87294 like lines cut
*DEFINE_COORDINATE_SYSTEM
$       ID        xO        yO        zO        xL        yL        zL   unused1
        90         0         0         0         1         0         0          
$       xP        yP        zP                                           unused2
         0         1         0                                                  
*SET_SEGMENT
         1
       375      1640       376       376
       264       263      1943      1943
       365       364      1657      1657
       280       281      2687      2687
      3353       297       298       298
       388       387      1643      1643
       259      2435       260       260
       217       216      3375      3375
      3194       287       288       288
      2099       349       350       350
      2212      2111      2130      2130
      1820      1497      1670      1670
      2883      2956      2958      2958
      3666      3695      3696      3696
      2305      2303      2384      2384
      3826      3824      3827      3827
       239      3307      3308      3308
      2431      1586      1616      1616
      2207       341       342       342
$ ... 7439 like lines cut
*SET_SEGMENT
         2
     10374     10407     10339     10340
     10375     10374     10340     10341
     10376     10375     10341     10342
     10377     10376     10342     10343
     10378     10377     10343     10344
     10379     10378     10344     10345
     10380     10379     10345     10346
     10381     10380     10346     10347
     10382     10381     10347     10348
     10383     10382     10348     10349
     10384     10383     10349     10350
     10385     10384     10350     10351
     10386     10385     10351     10352
     10387     10386     10352     10353
     10388     10387     10353     10354
     10389     10388     10354     10355
     10390     10389     10355     10356
     10391     10390     10356     10357
     10392     10391     10357     10358
$ ... 19 like lines cut
*CONTACT_TIED_SURFACE_TO_SURFACE_OFFSET_ID
$       ID                                                               heading
        92                                                        Contact Region
$     ssid      msid     sstyp     mstyp    sboxid    mboxid       spr       mpr
         1         2         0         0         0         0         1         1
$       fs        fd        dc        vc       vdc    penchk        bt        dt
         0         0         0         0        10         0         0         0
$      sfs       sfm       sst       mst      sfst      sfmt       fsf       vsf
         0         0         0         0         0         0         0         0
$     soft   softscl    lcidab    maxpar     sbopt     depth     bsort    frcfrq
         0         0         0         0         3         5         0         0
$   penmax    tkhopt    shlthk     snlog      isym     i2d3d    sldthk    sldstf
         0         0         0         0         0         0         0         0
*SET_SEGMENT
         3
       117       118      9102      9102
      9102       118       119       119
       116       117      9102      9102
       115       116      9102      9102
       120       115      9102      9102
       120      9102       119       119
       105      9101       104       104
       106       107      9101      9101
      9101       103       104       104
       108       103      9101      9101
       107       108      9101      9101
       105       106      9101      9101
        91      9100        96        96
        93      9100        92        92
      9100        95        96        96
      9100        93        94        94
      9100        91        92        92
        95      9100        94        94
        83        84      9099      9099
$ ... 17 like lines cut
*SET_SEGMENT
         4
     10942     11468     11469     11470
     10973     10942     11470     11471
     11004     10973     11471     11472
     11035     11004     11472     11473
     11066     11035     11473     11474
     11097     11066     11474     11475
     11128     11097     11475     11476
     11159     11128     11476     11477
     11190     11159     11477     11478
     11221     11190     11478     11479
     11252     11221     11479     11480
     11283     11252     11480     11481
     11314     11283     11481     11482
     11345     11314     11482     11483
     11376     11345     11483     11484
     11407     11376     11484     11485
     11407     11485     11486     11487
     10943     11467     11468     10942
     10974     10943     10942     10973
$ ... 525 like lines cut
*CONTACT_TIED_SURFACE_TO_SURFACE_OFFSET_ID
$       ID                                                               heading
        95                                                      Contact Region 2
$     ssid      msid     sstyp     mstyp    sboxid    mboxid       spr       mpr
         3         4         0         0         0         0         1         1
$       fs        fd        dc        vc       vdc    penchk        bt        dt
         0         0         0         0        10         0         0         0
$      sfs       sfm       sst       mst      sfst      sfmt       fsf       vsf
         0         0         0         0         0         0         0         0
$     soft   softscl    lcidab    maxpar     sbopt     depth     bsort    frcfrq
         0         0         0         0         3         5         0         0
$   penmax    tkhopt    shlthk     snlog      isym     i2d3d    sldthk    sldstf
         0         0         0         0         0         0         0         0
*SET_SEGMENT
         5
        43      9096        48        48
      9096        43        44        44
      9096        45        46        46
        45      9096        44        44
      9096        47        48        48
        47      9096        46        46
        34      9095        33        33
      9095        32        33        33
        32      9095        31        31
        35      9095        34        34
        36      9095        35        35
      9095        36        31        31
        24      9094        23        23
        22      9094        21        21
      9094        20        21        21
      9094        24        19        19
        20      9094        19        19
        22        23      9094      9094
        12         7      9093      9093
$ ... 5 like lines cut
*SET_SEGMENT
         6
     12558     12898     12899     12900
     12569     12558     12900     12901
     12580     12569     12901     12902
     12591     12580     12902     12903
     12602     12591     12903     12904
     12613     12602     12904     12905
     12624     12613     12905     12906
     12635     12624     12906     12907
     12646     12635     12907     12908
     12657     12646     12908     12909
     12668     12657     12909     12910
     12679     12668     12910     12911
     12690     12679     12911     12912
     12701     12690     12912     12913
     12712     12701     12913     12914
     12723     12712     12914     12915
     12734     12723     12915     12916
     12745     12734     12916     12917
     12756     12745     12917     12918
$ ... 353 like lines cut
*CONTACT_TIED_SURFACE_TO_SURFACE_OFFSET_ID
$       ID                                                               heading
        98                                                      Contact Region 3
$     ssid      msid     sstyp     mstyp    sboxid    mboxid       spr       mpr
         5         6         0         0         0         0         1         1
$       fs        fd        dc        vc       vdc    penchk        bt        dt
         0         0         0         0        10         0         0         0
$      sfs       sfm       sst       mst      sfst      sfmt       fsf       vsf
         0         0         0         0         0         0         0         0
$     soft   softscl    lcidab    maxpar     sbopt     depth     bsort    frcfrq
         0         0         0         0         3         5         0         0
$   penmax    tkhopt    shlthk     snlog      isym     i2d3d    sldthk    sldstf
         0         0         0         0         0         0         0         0
*SET_SEGMENT
         7
        43      9096        48        48
      9096        43        44        44
      9096        45        46        46
        45      9096        44        44
      9096        47        48        48
        47      9096        46        46
*SET_SEGMENT
         8
     13109     13138     13139     13140
     13114     13109     13140     13141
     13119     13114     13141     13142
     13124     13119     13142     13143
     13129     13124     13143     13144
     13129     13144     13145     13146
     13110     13137     13138     13109
     13115     13110     13109     13114
     13120     13115     13114     13119
     13125     13120     13119     13124
     13130     13125     13124     13129
     13130     13129     13146     13147
     13111     13136     13137     13110
     13116     13111     13110     13115
     13121     13116     13115     13120
     13126     13121     13120     13125
     13131     13126     13125     13130
     13131     13130     13147     13148
     13112     13135     13136     13111
$ ... 17 like lines cut
*CONTACT_TIED_SURFACE_TO_SURFACE_OFFSET_ID
$       ID                                                               heading
       101                                                      Contact Region 4
$     ssid      msid     sstyp     mstyp    sboxid    mboxid       spr       mpr
         7         8         0         0         0         0         1         1
$       fs        fd        dc        vc       vdc    penchk        bt        dt
         0         0         0         0        10         0         0         0
$      sfs       sfm       sst       mst      sfst      sfmt       fsf       vsf
         0         0         0         0         0         0         0         0
$     soft   softscl    lcidab    maxpar     sbopt     depth     bsort    frcfrq
         0         0         0         0         3         5         0         0
$   penmax    tkhopt    shlthk     snlog      isym     i2d3d    sldthk    sldstf
         0         0         0         0         0         0         0         0
*SET_SEGMENT
         9
       185      4615      4616      4616
      4432       691       692       692
      4533       691      4432      4432
       605      4629      4630      4630
      4629       605       606       606
       187       186      4617      4617
      4618       187      4617      4617
       186       185      4616      4616
      4617       186      4616      4616
      4450       555       556       556
      4450       556      4570      4570
       809       810      4510      4510
       810      4509      4510      4510
      4497       627      4496      4496
      4497       626       627       627
      4506       780      4530      4530
      4506       779       780       780
       780       781      4530      4530
      4446       545       546       546
$ ... 913 like lines cut
*SET_SEGMENT
        10
     13829     13712     13717     13716
     13790     14263     13717     13712
     13827     13650     13735     13714
     13735     13650     13734     14150
     13826     13711     13771     13713
     13771     13711     13770     14186
     13718     13717     14263     14074
     13719     13718     14074     14075
     13720     13719     14075     14076
     13721     13720     14076     14077
     13722     13721     14077     14078
     13723     13722     14078     14079
     13724     13723     14079     14080
     13725     13724     14080     14081
     13725     14081     14082     13590
     13591     13590     14082     14083
     13592     13591     14083     14084
     13593     13592     14084     14085
     13594     13593     14085     14086
$ ... 460 like lines cut
*CONTACT_TIED_SURFACE_TO_SURFACE_OFFSET_ID
$       ID                                                               heading
       104                                                      Contact Region 5
$     ssid      msid     sstyp     mstyp    sboxid    mboxid       spr       mpr
         9        10         0         0         0         0         1         1
$       fs        fd        dc        vc       vdc    penchk        bt        dt
         0         0         0         0        10         0         0         0
$      sfs       sfm       sst       mst      sfst      sfmt       fsf       vsf
         0         0         0         0         0         0         0         0
$     soft   softscl    lcidab    maxpar     sbopt     depth     bsort    frcfrq
         0         0         0         0         3         5         0         0
$   penmax    tkhopt    shlthk     snlog      isym     i2d3d    sldthk    sldstf
         0         0         0         0         0         0         0         0
*SET_SEGMENT
        11
       185      4615      4616      4616
      4432       691       692       692
      4533       691      4432      4432
       605      4629      4630      4630
      4629       605       606       606
       187       186      4617      4617
      4618       187      4617      4617
       186       185      4616      4616
      4617       186      4616      4616
      4450       555       556       556
      4450       556      4570      4570
       809       810      4510      4510
       810      4509      4510      4510
      4497       627      4496      4496
      4497       626       627       627
      4506       780      4530      4530
      4506       779       780       780
       780       781      4530      4530
      4446       545       546       546
$ ... 913 like lines cut
*SET_SEGMENT
        12
     23213     23214     23255     23256
     20888     23256     23255     20889
     23212     23213     23256     23257
     20887     23257     23256     20888
     23214     23215     23254     23255
     20889     23255     23254     20890
     20930     23214     23213     20931
     20929     23215     23214     20930
     20931     23213     23212     20932
     23211     23212     23257     23258
     20886     23258     23257     20887
     23215     23216     23253     23254
     20890     23254     23253     20891
     20928     23216     23215     20929
     20932     23212     23211     20933
     23210     23211     23258     23259
     20885     23259     23258     20886
     23216     23217     23252     23253
     20891     23253     23252     20892
$ ... 3152 like lines cut
*CONTACT_TIED_SURFACE_TO_SURFACE_OFFSET_ID
$       ID                                                               heading
       107                                                      Contact Region 6
$     ssid      msid     sstyp     mstyp    sboxid    mboxid       spr       mpr
        11        12         0         0         0         0         1         1
$       fs        fd        dc        vc       vdc    penchk        bt        dt
         0         0         0         0        10         0         0         0
$      sfs       sfm       sst       mst      sfst      sfmt       fsf       vsf
         0         0         0         0         0         0         0         0
$     soft   softscl    lcidab    maxpar     sbopt     depth     bsort    frcfrq
         0         0         0         0         3         5         0         0
$   penmax    tkhopt    shlthk     snlog      isym     i2d3d    sldthk    sldstf
         0         0         0         0         0         0         0         0
*SET_SEGMENT
        13
       375      1640       376       376
       264       263      1943      1943
       365       364      1657      1657
       280       281      2687      2687
      3353       297       298       298
       388       387      1643      1643
       259      2435       260       260
       217       216      3375      3375
      3194       287       288       288
      2099       349       350       350
      2212      2111      2130      2130
      1820      1497      1670      1670
      2883      2956      2958      2958
      3666      3695      3696      3696
      2305      2303      2384      2384
      3826      3824      3827      3827
       239      3307      3308      3308
      2431      1586      1616      1616
      2207       341       342       342
$ ... 6509 like lines cut
*SET_SEGMENT
        14
     26806     27921     27922     27923
     26806     27923     27924     26842
     26842     27924     27925     26878
     26878     27925     27926     26914
     26914     27926     27927     26950
     26950     27927     27928     26986
     26986     27928     27929     27022
     27022     27929     27930     27058
     27058     27930     27931     27094
     27094     27931     27932     27130
     27130     27932     27933     27166
     27166     27933     27934     27202
     27202     27934     27935     27238
     27238     27935     27936     27274
     27274     27936     27937     27310
     27310     27937     27938     27346
     27346     27938     27939     27382
     27382     27939     27940     27418
     27418     27940     27941     27454
$ ... 1128 like lines cut
*CONTACT_TIED_SURFACE_TO_SURFACE_OFFSET_ID
$       ID                                                               heading
       110                                                      Contact Region 7
$     ssid      msid     sstyp     mstyp    sboxid    mboxid       spr       mpr
        13        14         0         0         0         0         1         1
$       fs        fd        dc        vc       vdc    penchk        bt        dt
         0         0         0         0        10         0         0         0
$      sfs       sfm       sst       mst      sfst      sfmt       fsf       vsf
         0         0         0         0         0         0         0         0
$     soft   softscl    lcidab    maxpar     sbopt     depth     bsort    frcfrq
         0         0         0         0         3         5         0         0
$   penmax    tkhopt    shlthk     snlog      isym     i2d3d    sldthk    sldstf
         0         0         0         0         0         0         0         0
*SET_SEGMENT
        15
     10442     10409     10305     10304
     10409     10410     10306     10305
     10410     10411     10307     10306
     10411     10412     10308     10307
     10412     10413     10309     10308
     10413     10414     10310     10309
     10414     10415     10311     10310
     10415     10416     10312     10311
     10416     10417     10313     10312
     10417     10418     10314     10313
     10418     10419     10315     10314
     10419     10420     10316     10315
     10420     10421     10317     10316
     10421     10422     10318     10317
     10422     10423     10319     10318
     10423     10424     10320     10319
     10424     10425     10321     10320
     10425     10426     10322     10321
     10426     10427     10323     10322
$ ... 15 like lines cut
*SET_SEGMENT
        16
     23213     23214     23255     23256
     20888     23256     23255     20889
     23212     23213     23256     23257
     20887     23257     23256     20888
     23214     23215     23254     23255
     20889     23255     23254     20890
     20930     23214     23213     20931
     20929     23215     23214     20930
     20931     23213     23212     20932
     23211     23212     23257     23258
     20886     23258     23257     20887
     23215     23216     23253     23254
     20890     23254     23253     20891
     20928     23216     23215     20929
     20932     23212     23211     20933
     23210     23211     23258     23259
     20885     23259     23258     20886
     23216     23217     23252     23253
     20891     23253     23252     20892
$ ... 3152 like lines cut
*CONTACT_TIED_SURFACE_TO_SURFACE_OFFSET_ID
$       ID                                                               heading
       113                                                      Contact Region 8
$     ssid      msid     sstyp     mstyp    sboxid    mboxid       spr       mpr
        15        16         0         0         0         0         1         1
$       fs        fd        dc        vc       vdc    penchk        bt        dt
         0         0         0         0        10         0         0         0
$      sfs       sfm       sst       mst      sfst      sfmt       fsf       vsf
         0         0         0         0         0         0         0         0
$     soft   softscl    lcidab    maxpar     sbopt     depth     bsort    frcfrq
         0         0         0         0         3         5         0         0
$   penmax    tkhopt    shlthk     snlog      isym     i2d3d    sldthk    sldstf
         0         0         0         0         0         0         0         0
*SET_SEGMENT
        17
     11603     10941     11601     11602
     10941     10910     11600     11601
     10910     10879     11599     11600
     10879     10848     11598     11599
     10848     10817     11597     11598
     10817     10786     11596     11597
     10786     10755     11595     11596
     10755     10724     11594     11595
     10724     10693     11593     11594
     10693     10662     11592     11593
     10662     10631     11591     11592
     10631     10600     11590     11591
     10600     10569     11589     11590
     10569     10538     11588     11589
     10538     10507     11587     11588
     10507     10476     11586     11587
     11586     10476     11584     11585
     11604     10940     10941     11603
     10940     10909     10910     10941
$ ... 525 like lines cut
*SET_SEGMENT
        18
     11636     11639     11640     11641
     11636     11641     11642     11643
     11637     11638     11639     11636
     11637     11636     11643     11644
     11637     11646     11647     11638
     11637     11644     11645     11646
*CONTACT_TIED_SURFACE_TO_SURFACE_OFFSET_ID
$       ID                                                               heading
       116                                                      Contact Region 9
$     ssid      msid     sstyp     mstyp    sboxid    mboxid       spr       mpr
        17        18         0         0         0         0         1         1
$       fs        fd        dc        vc       vdc    penchk        bt        dt
         0         0         0         0        10         0         0         0
$      sfs       sfm       sst       mst      sfst      sfmt       fsf       vsf
         0         0         0         0         0         0         0         0
$     soft   softscl    lcidab    maxpar     sbopt     depth     bsort    frcfrq
         0         0         0         0         3         5         0         0
$   penmax    tkhopt    shlthk     snlog      isym     i2d3d    sldthk    sldstf
         0         0         0         0         0         0         0         0
*SET_SEGMENT
        19
     11603     10941     11601     11602
     10941     10910     11600     11601
     10910     10879     11599     11600
     10879     10848     11598     11599
     10848     10817     11597     11598
     10817     10786     11596     11597
     10786     10755     11595     11596
     10755     10724     11594     11595
     10724     10693     11593     11594
     10693     10662     11592     11593
     10662     10631     11591     11592
     10631     10600     11590     11591
     10600     10569     11589     11590
     10569     10538     11588     11589
     10538     10507     11587     11588
     10507     10476     11586     11587
     11586     10476     11584     11585
     11604     10940     10941     11603
     10940     10909     10910     10941
$ ... 525 like lines cut
*SET_SEGMENT
        20
     11666     11677     11678     11679
     11670     11666     11679     11680
     11670     11680     11681     11682
     11667     11676     11677     11666
     11671     11667     11666     11670
     11671     11670     11682     11683
     11668     11675     11676     11667
     11672     11668     11667     11671
     11672     11671     11683     11684
     11669     11674     11675     11668
     11673     11669     11668     11672
     11673     11672     11684     11685
     11669     11688     11689     11674
     11673     11687     11688     11669
     11673     11685     11686     11687
*CONTACT_TIED_SURFACE_TO_SURFACE_OFFSET_ID
$       ID                                                               heading
       119                                                     Contact Region 10
$     ssid      msid     sstyp     mstyp    sboxid    mboxid       spr       mpr
        19        20         0         0         0         0         1         1
$       fs        fd        dc        vc       vdc    penchk        bt        dt
         0         0         0         0        10         0         0         0
$      sfs       sfm       sst       mst      sfst      sfmt       fsf       vsf
         0         0         0         0         0         0         0         0
$     soft   softscl    lcidab    maxpar     sbopt     depth     bsort    frcfrq
         0         0         0         0         3         5         0         0
$   penmax    tkhopt    shlthk     snlog      isym     i2d3d    sldthk    sldstf
         0         0         0         0         0         0         0         0
*SET_SEGMENT
        21
     11603     10941     11601     11602
     10941     10910     11600     11601
     10910     10879     11599     11600
     10879     10848     11598     11599
     10848     10817     11597     11598
     10817     10786     11596     11597
     10786     10755     11595     11596
     10755     10724     11594     11595
     10724     10693     11593     11594
     10693     10662     11592     11593
     10662     10631     11591     11592
     10631     10600     11590     11591
     10600     10569     11589     11590
     10569     10538     11588     11589
     10538     10507     11587     11588
     10507     10476     11586     11587
     11586     10476     11584     11585
     11604     10940     10941     11603
     10940     10909     10910     10941
$ ... 525 like lines cut
*SET_SEGMENT
        22
     11786     11875     11876     11877
     11796     11786     11877     11878
     11806     11796     11878     11879
     11816     11806     11879     11880
     11826     11816     11880     11881
     11836     11826     11881     11882
     11846     11836     11882     11883
     11856     11846     11883     11884
     11856     11884     11885     11886
     11787     11874     11875     11786
     11797     11787     11786     11796
     11807     11797     11796     11806
     11817     11807     11806     11816
     11827     11817     11816     11826
     11837     11827     11826     11836
     11847     11837     11836     11846
     11857     11847     11846     11856
     11857     11856     11886     11887
     11788     11873     11874     11787
$ ... 80 like lines cut
*CONTACT_TIED_SURFACE_TO_SURFACE_OFFSET_ID
$       ID                                                               heading
       122                                                     Contact Region 11
$     ssid      msid     sstyp     mstyp    sboxid    mboxid       spr       mpr
        21        22         0         0         0         0         1         1
$       fs        fd        dc        vc       vdc    penchk        bt        dt
         0         0         0         0        10         0         0         0
$      sfs       sfm       sst       mst      sfst      sfmt       fsf       vsf
         0         0         0         0         0         0         0         0
$     soft   softscl    lcidab    maxpar     sbopt     depth     bsort    frcfrq
         0         0         0         0         3         5         0         0
$   penmax    tkhopt    shlthk     snlog      isym     i2d3d    sldthk    sldstf
         0         0         0         0         0         0         0         0
*SET_SEGMENT
        23
     11603     10941     11601     11602
     10941     10910     11600     11601
     10910     10879     11599     11600
     10879     10848     11598     11599
     10848     10817     11597     11598
     10817     10786     11596     11597
     10786     10755     11595     11596
     10755     10724     11594     11595
     10724     10693     11593     11594
     10693     10662     11592     11593
     10662     10631     11591     11592
     10631     10600     11590     11591
     10600     10569     11589     11590
     10569     10538     11588     11589
     10538     10507     11587     11588
     10507     10476     11586     11587
     11586     10476     11584     11585
     11604     10940     10941     11603
     10940     10909     10910     10941
$ ... 525 like lines cut
*SET_SEGMENT
        24
     11948     11951     11952     11953
     11948     11953     11954     11955
     11949     11950     11951     11948
     11949     11948     11955     11956
     11949     11958     11959     11950
     11949     11956     11957     11958
*CONTACT_TIED_SURFACE_TO_SURFACE_OFFSET_ID
$       ID                                                               heading
       125                                                     Contact Region 12
$     ssid      msid     sstyp     mstyp    sboxid    mboxid       spr       mpr
        23        24         0         0         0         0         1         1
$       fs        fd        dc        vc       vdc    penchk        bt        dt
         0         0         0         0        10         0         0         0
$      sfs       sfm       sst       mst      sfst      sfmt       fsf       vsf
         0         0         0         0         0         0         0         0
$     soft   softscl    lcidab    maxpar     sbopt     depth     bsort    frcfrq
         0         0         0         0         3         5         0         0
$   penmax    tkhopt    shlthk     snlog      isym     i2d3d    sldthk    sldstf
         0         0         0         0         0         0         0         0
*SET_SEGMENT
        25
     11603     10941     11601     11602
     10941     10910     11600     11601
     10910     10879     11599     11600
     10879     10848     11598     11599
     10848     10817     11597     11598
     10817     10786     11596     11597
     10786     10755     11595     11596
     10755     10724     11594     11595
     10724     10693     11593     11594
     10693     10662     11592     11593
     10662     10631     11591     11592
     10631     10600     11590     11591
     10600     10569     11589     11590
     10569     10538     11588     11589
     10538     10507     11587     11588
     10507     10476     11586     11587
     11586     10476     11584     11585
     11604     10940     10941     11603
     10940     10909     10910     10941
$ ... 525 like lines cut
*SET_SEGMENT
        26
     11972     11975     11976     11977
     11972     11977     11978     11979
     11973     11974     11975     11972
     11973     11972     11979     11980
     11973     11982     11983     11974
     11973     11980     11981     11982
*CONTACT_TIED_SURFACE_TO_SURFACE_OFFSET_ID
$       ID                                                               heading
       128                                                     Contact Region 13
$     ssid      msid     sstyp     mstyp    sboxid    mboxid       spr       mpr
        25        26         0         0         0         0         1         1
$       fs        fd        dc        vc       vdc    penchk        bt        dt
         0         0         0         0        10         0         0         0
$      sfs       sfm       sst       mst      sfst      sfmt       fsf       vsf
         0         0         0         0         0         0         0         0
$     soft   softscl    lcidab    maxpar     sbopt     depth     bsort    frcfrq
         0         0         0         0         3         5         0         0
$   penmax    tkhopt    shlthk     snlog      isym     i2d3d    sldthk    sldstf
         0         0         0         0         0         0         0         0
*SET_SEGMENT
        27
     11603     10941     11601     11602
     10941     10910     11600     11601
     10910     10879     11599     11600
     10879     10848     11598     11599
     10848     10817     11597     11598
     10817     10786     11596     11597
     10786     10755     11595     11596
     10755     10724     11594     11595
     10724     10693     11593     11594
     10693     10662     11592     11593
     10662     10631     11591     11592
     10631     10600     11590     11591
     10600     10569     11589     11590
     10569     10538     11588     11589
     10538     10507     11587     11588
     10507     10476     11586     11587
     11586     10476     11584     11585
     11604     10940     10941     11603
     10940     10909     10910     10941
$ ... 525 like lines cut
*SET_SEGMENT
        28
     12002     12011     12012     12013
     12004     12002     12013     12014
     12006     12004     12014     12015
     12008     12006     12015     12016
     12008     12016     12017     12018
     12003     12010     12011     12002
     12005     12003     12002     12004
     12007     12005     12004     12006
     12009     12007     12006     12008
     12009     12008     12018     12019
     12003     12024     12025     12010
     12005     12023     12024     12003
     12007     12022     12023     12005
     12009     12021     12022     12007
     12009     12019     12020     12021
*CONTACT_TIED_SURFACE_TO_SURFACE_OFFSET_ID
$       ID                                                               heading
       131                                                     Contact Region 14
$     ssid      msid     sstyp     mstyp    sboxid    mboxid       spr       mpr
        27        28         0         0         0         0         1         1
$       fs        fd        dc        vc       vdc    penchk        bt        dt
         0         0         0         0        10         0         0         0
$      sfs       sfm       sst       mst      sfst      sfmt       fsf       vsf
         0         0         0         0         0         0         0         0
$     soft   softscl    lcidab    maxpar     sbopt     depth     bsort    frcfrq
         0         0         0         0         3         5         0         0
$   penmax    tkhopt    shlthk     snlog      isym     i2d3d    sldthk    sldstf
         0         0         0         0         0         0         0         0
*SET_SEGMENT
        29
     11603     10941     11601     11602
     10941     10910     11600     11601
     10910     10879     11599     11600
     10879     10848     11598     11599
     10848     10817     11597     11598
     10817     10786     11596     11597
     10786     10755     11595     11596
     10755     10724     11594     11595
     10724     10693     11593     11594
     10693     10662     11592     11593
     10662     10631     11591     11592
     10631     10600     11590     11591
     10600     10569     11589     11590
     10569     10538     11588     11589
     10538     10507     11587     11588
     10507     10476     11586     11587
     11586     10476     11584     11585
     11604     10940     10941     11603
     10940     10909     10910     10941
$ ... 525 like lines cut
*SET_SEGMENT
        30
     12043     12044     12045     12046
     12043     12046     12047     12048
     12043     12050     12051     12044
     12043     12048     12049     12050
*CONTACT_TIED_SURFACE_TO_SURFACE_OFFSET_ID
$       ID                                                               heading
       134                                                     Contact Region 15
$     ssid      msid     sstyp     mstyp    sboxid    mboxid       spr       mpr
        29        30         0         0         0         0         1         1
$       fs        fd        dc        vc       vdc    penchk        bt        dt
         0         0         0         0        10         0         0         0
$      sfs       sfm       sst       mst      sfst      sfmt       fsf       vsf
         0         0         0         0         0         0         0         0
$     soft   softscl    lcidab    maxpar     sbopt     depth     bsort    frcfrq
         0         0         0         0         3         5         0         0
$   penmax    tkhopt    shlthk     snlog      isym     i2d3d    sldthk    sldstf
         0         0         0         0         0         0         0         0
*SET_SEGMENT
        31
     11603     10941     11601     11602
     10941     10910     11600     11601
     10910     10879     11599     11600
     10879     10848     11598     11599
     10848     10817     11597     11598
     10817     10786     11596     11597
     10786     10755     11595     11596
     10755     10724     11594     11595
     10724     10693     11593     11594
     10693     10662     11592     11593
     10662     10631     11591     11592
     10631     10600     11590     11591
     10600     10569     11589     11590
     10569     10538     11588     11589
     10538     10507     11587     11588
     10507     10476     11586     11587
     11586     10476     11584     11585
     11604     10940     10941     11603
     10940     10909     10910     10941
$ ... 525 like lines cut
*SET_SEGMENT
        32
     12070     12084     12085     12086
     12075     12070     12086     12087
     12075     12087     12088     12089
     12071     12083     12084     12070
     12076     12071     12070     12075
     12076     12075     12089     12090
     12072     12082     12083     12071
     12077     12072     12071     12076
     12077     12076     12090     12091
     12073     12081     12082     12072
     12078     12073     12072     12077
     12078     12077     12091     12092
     12074     12080     12081     12073
     12079     12074     12073     12078
     12079     12078     12092     12093
     12074     12096     12097     12080
     12079     12095     12096     12074
     12079     12093     12094     12095
*CONTACT_TIED_SURFACE_TO_SURFACE_OFFSET_ID
$       ID                                                               heading
       137                                                     Contact Region 16
$     ssid      msid     sstyp     mstyp    sboxid    mboxid       spr       mpr
        31        32         0         0         0         0         1         1
$       fs        fd        dc        vc       vdc    penchk        bt        dt
         0         0         0         0        10         0         0         0
$      sfs       sfm       sst       mst      sfst      sfmt       fsf       vsf
         0         0         0         0         0         0         0         0
$     soft   softscl    lcidab    maxpar     sbopt     depth     bsort    frcfrq
         0         0         0         0         3         5         0         0
$   penmax    tkhopt    shlthk     snlog      isym     i2d3d    sldthk    sldstf
         0         0         0         0         0         0         0         0
*SET_SEGMENT
        33
     11603     10941     11601     11602
     10941     10910     11600     11601
     10910     10879     11599     11600
     10879     10848     11598     11599
     10848     10817     11597     11598
     10817     10786     11596     11597
     10786     10755     11595     11596
     10755     10724     11594     11595
     10724     10693     11593     11594
     10693     10662     11592     11593
     10662     10631     11591     11592
     10631     10600     11590     11591
     10600     10569     11589     11590
     10569     10538     11588     11589
     10538     10507     11587     11588
     10507     10476     11586     11587
     11586     10476     11584     11585
     11604     10940     10941     11603
     10940     10909     10910     10941
$ ... 525 like lines cut
*SET_SEGMENT
        34
     12134     12154     12155     12156
     12137     12134     12156     12157
     12140     12137     12157     12158
     12143     12140     12158     12159
     12146     12143     12159     12160
     12149     12146     12160     12161
     12149     12161     12162     12163
     12135     12153     12154     12134
     12138     12135     12134     12137
     12141     12138     12137     12140
     12144     12141     12140     12143
     12147     12144     12143     12146
     12150     12147     12146     12149
     12150     12149     12163     12164
     12136     12152     12153     12135
     12139     12136     12135     12138
     12142     12139     12138     12141
     12145     12142     12141     12144
     12148     12145     12144     12147
$ ... 9 like lines cut
*CONTACT_TIED_SURFACE_TO_SURFACE_OFFSET_ID
$       ID                                                               heading
       140                                                     Contact Region 17
$     ssid      msid     sstyp     mstyp    sboxid    mboxid       spr       mpr
        33        34         0         0         0         0         1         1
$       fs        fd        dc        vc       vdc    penchk        bt        dt
         0         0         0         0        10         0         0         0
$      sfs       sfm       sst       mst      sfst      sfmt       fsf       vsf
         0         0         0         0         0         0         0         0
$     soft   softscl    lcidab    maxpar     sbopt     depth     bsort    frcfrq
         0         0         0         0         3         5         0         0
$   penmax    tkhopt    shlthk     snlog      isym     i2d3d    sldthk    sldstf
         0         0         0         0         0         0         0         0
*SET_SEGMENT
        35
     11603     10941     11601     11602
     10941     10910     11600     11601
     10910     10879     11599     11600
     10879     10848     11598     11599
     10848     10817     11597     11598
     10817     10786     11596     11597
     10786     10755     11595     11596
     10755     10724     11594     11595
     10724     10693     11593     11594
     10693     10662     11592     11593
     10662     10631     11591     11592
     10631     10600     11590     11591
     10600     10569     11589     11590
     10569     10538     11588     11589
     10538     10507     11587     11588
     10507     10476     11586     11587
     11586     10476     11584     11585
     11604     10940     10941     11603
     10940     10909     10910     10941
$ ... 525 like lines cut
*SET_SEGMENT
        36
     12200     12197     12198     12199
     12201     12196     12197     12200
     12203     12196     12201     12202
*CONTACT_TIED_SURFACE_TO_SURFACE_OFFSET_ID
$       ID                                                               heading
       143                                                     Contact Region 18
$     ssid      msid     sstyp     mstyp    sboxid    mboxid       spr       mpr
        35        36         0         0         0         0         1         1
$       fs        fd        dc        vc       vdc    penchk        bt        dt
         0         0         0         0        10         0         0         0
$      sfs       sfm       sst       mst      sfst      sfmt       fsf       vsf
         0         0         0         0         0         0         0         0
$     soft   softscl    lcidab    maxpar     sbopt     depth     bsort    frcfrq
         0         0         0         0         3         5         0         0
$   penmax    tkhopt    shlthk     snlog      isym     i2d3d    sldthk    sldstf
         0         0         0         0         0         0         0         0
*SET_SEGMENT
        37
     11603     10941     11601     11602
     10941     10910     11600     11601
     10910     10879     11599     11600
     10879     10848     11598     11599
     10848     10817     11597     11598
     10817     10786     11596     11597
     10786     10755     11595     11596
     10755     10724     11594     11595
     10724     10693     11593     11594
     10693     10662     11592     11593
     10662     10631     11591     11592
     10631     10600     11590     11591
     10600     10569     11589     11590
     10569     10538     11588     11589
     10538     10507     11587     11588
     10507     10476     11586     11587
     11586     10476     11584     11585
     11604     10940     10941     11603
     10940     10909     10910     10941
$ ... 525 like lines cut
*SET_SEGMENT
        38
     12216     12213     12214     12215
     12217     12212     12213     12216
     12219     12212     12217     12218
*CONTACT_TIED_SURFACE_TO_SURFACE_OFFSET_ID
$       ID                                                               heading
       146                                                     Contact Region 19
$     ssid      msid     sstyp     mstyp    sboxid    mboxid       spr       mpr
        37        38         0         0         0         0         1         1
$       fs        fd        dc        vc       vdc    penchk        bt        dt
         0         0         0         0        10         0         0         0
$      sfs       sfm       sst       mst      sfst      sfmt       fsf       vsf
         0         0         0         0         0         0         0         0
$     soft   softscl    lcidab    maxpar     sbopt     depth     bsort    frcfrq
         0         0         0         0         3         5         0         0
$   penmax    tkhopt    shlthk     snlog      isym     i2d3d    sldthk    sldstf
         0         0         0         0         0         0         0         0
*SET_SEGMENT
        39
     13049     12557     13047     13048
     12557     12546     13046     13047
     12546     12535     13045     13046
     12535     12524     13044     13045
     12524     12513     13043     13044
     12513     12502     13042     13043
     12502     12491     13041     13042
     12491     12480     13040     13041
     12480     12469     13039     13040
     12469     12458     13038     13039
     12458     12447     13037     13038
     12447     12436     13036     13037
     12436     12425     13035     13036
     12425     12414     13034     13035
     12414     12403     13033     13034
     12403     12392     13032     13033
     12392     12381     13031     13032
     12381     12370     13030     13031
     12370     12359     13029     13030
$ ... 353 like lines cut
*SET_SEGMENT
        40
     13062     13065     13066     13067
     13062     13067     13068     13069
     13063     13064     13065     13062
     13063     13062     13069     13070
     13063     13072     13073     13064
     13063     13070     13071     13072
*CONTACT_TIED_SURFACE_TO_SURFACE_OFFSET_ID
$       ID                                                               heading
       149                                                     Contact Region 20
$     ssid      msid     sstyp     mstyp    sboxid    mboxid       spr       mpr
        39        40         0         0         0         0         1         1
$       fs        fd        dc        vc       vdc    penchk        bt        dt
         0         0         0         0        10         0         0         0
$      sfs       sfm       sst       mst      sfst      sfmt       fsf       vsf
         0         0         0         0         0         0         0         0
$     soft   softscl    lcidab    maxpar     sbopt     depth     bsort    frcfrq
         0         0         0         0         3         5         0         0
$   penmax    tkhopt    shlthk     snlog      isym     i2d3d    sldthk    sldstf
         0         0         0         0         0         0         0         0
*SET_SEGMENT
        41
     13049     12557     13047     13048
     12557     12546     13046     13047
     12546     12535     13045     13046
     12535     12524     13044     13045
     12524     12513     13043     13044
     12513     12502     13042     13043
     12502     12491     13041     13042
     12491     12480     13040     13041
     12480     12469     13039     13040
     12469     12458     13038     13039
     12458     12447     13037     13038
     12447     12436     13036     13037
     12436     12425     13035     13036
     12425     12414     13034     13035
     12414     12403     13033     13034
     12403     12392     13032     13033
     12392     12381     13031     13032
     12381     12370     13030     13031
     12370     12359     13029     13030
$ ... 353 like lines cut
*SET_SEGMENT
        42
     13109     13138     13139     13140
     13114     13109     13140     13141
     13119     13114     13141     13142
     13124     13119     13142     13143
     13129     13124     13143     13144
     13129     13144     13145     13146
     13110     13137     13138     13109
     13115     13110     13109     13114
     13120     13115     13114     13119
     13125     13120     13119     13124
     13130     13125     13124     13129
     13130     13129     13146     13147
     13111     13136     13137     13110
     13116     13111     13110     13115
     13121     13116     13115     13120
     13126     13121     13120     13125
     13131     13126     13125     13130
     13131     13130     13147     13148
     13112     13135     13136     13111
$ ... 17 like lines cut
*CONTACT_TIED_SURFACE_TO_SURFACE_OFFSET_ID
$       ID                                                               heading
       152                                                     Contact Region 21
$     ssid      msid     sstyp     mstyp    sboxid    mboxid       spr       mpr
        41        42         0         0         0         0         1         1
$       fs        fd        dc        vc       vdc    penchk        bt        dt
         0         0         0         0        10         0         0         0
$      sfs       sfm       sst       mst      sfst      sfmt       fsf       vsf
         0         0         0         0         0         0         0         0
$     soft   softscl    lcidab    maxpar     sbopt     depth     bsort    frcfrq
         0         0         0         0         3         5         0         0
$   penmax    tkhopt    shlthk     snlog      isym     i2d3d    sldthk    sldstf
         0         0         0         0         0         0         0         0
*SET_SEGMENT
        43
     13049     12557     13047     13048
     12557     12546     13046     13047
     12546     12535     13045     13046
     12535     12524     13044     13045
     12524     12513     13043     13044
     12513     12502     13042     13043
     12502     12491     13041     13042
     12491     12480     13040     13041
     12480     12469     13039     13040
     12469     12458     13038     13039
     12458     12447     13037     13038
     12447     12436     13036     13037
     12436     12425     13035     13036
     12425     12414     13034     13035
     12414     12403     13033     13034
     12403     12392     13032     13033
     12392     12381     13031     13032
     12381     12370     13030     13031
     12370     12359     13029     13030
$ ... 353 like lines cut
*SET_SEGMENT
        44
     13222     13251     13252     13253
     13222     13253     13254     13232
     13232     13254     13255     13256
     13222     13223     13250     13251
     13222     13232     13233     13223
     13232     13256     13257     13233
     13223     13224     13249     13250
     13223     13233     13234     13224
     13233     13257     13258     13234
     13224     13225     13248     13249
     13224     13234     13235     13225
     13234     13258     13259     13235
     13225     13226     13247     13248
     13225     13235     13236     13226
     13235     13259     13260     13236
     13226     13227     13246     13247
     13226     13236     13237     13227
     13236     13260     13261     13237
     13227     13228     13245     13246
$ ... 14 like lines cut
*CONTACT_TIED_SURFACE_TO_SURFACE_OFFSET_ID
$       ID                                                               heading
       155                                                     Contact Region 22
$     ssid      msid     sstyp     mstyp    sboxid    mboxid       spr       mpr
        43        44         0         0         0         0         1         1
$       fs        fd        dc        vc       vdc    penchk        bt        dt
         0         0         0         0        10         0         0         0
$      sfs       sfm       sst       mst      sfst      sfmt       fsf       vsf
         0         0         0         0         0         0         0         0
$     soft   softscl    lcidab    maxpar     sbopt     depth     bsort    frcfrq
         0         0         0         0         3         5         0         0
$   penmax    tkhopt    shlthk     snlog      isym     i2d3d    sldthk    sldstf
         0         0         0         0         0         0         0         0
*SET_SEGMENT
        45
     13049     12557     13047     13048
     12557     12546     13046     13047
     12546     12535     13045     13046
     12535     12524     13044     13045
     12524     12513     13043     13044
     12513     12502     13042     13043
     12502     12491     13041     13042
     12491     12480     13040     13041
     12480     12469     13039     13040
     12469     12458     13038     13039
     12458     12447     13037     13038
     12447     12436     13036     13037
     12436     12425     13035     13036
     12425     12414     13034     13035
     12414     12403     13033     13034
     12403     12392     13032     13033
     12392     12381     13031     13032
     12381     12370     13030     13031
     12370     12359     13029     13030
$ ... 353 like lines cut
*SET_SEGMENT
        46
     13328     13330     13331     13332
     13329     13328     13332     13333
     13329     13333     13334     13335
     13328     13338     13339     13330
     13329     13337     13338     13328
     13329     13335     13336     13337
*CONTACT_TIED_SURFACE_TO_SURFACE_OFFSET_ID
$       ID                                                               heading
       158                                                     Contact Region 23
$     ssid      msid     sstyp     mstyp    sboxid    mboxid       spr       mpr
        45        46         0         0         0         0         1         1
$       fs        fd        dc        vc       vdc    penchk        bt        dt
         0         0         0         0        10         0         0         0
$      sfs       sfm       sst       mst      sfst      sfmt       fsf       vsf
         0         0         0         0         0         0         0         0
$     soft   softscl    lcidab    maxpar     sbopt     depth     bsort    frcfrq
         0         0         0         0         3         5         0         0
$   penmax    tkhopt    shlthk     snlog      isym     i2d3d    sldthk    sldstf
         0         0         0         0         0         0         0         0
*SET_SEGMENT
        47
     13221     13303     13304     13316
     13221     13211     13302     13303
     13211     13297     13298     13302
     13221     13316     13317     13220
     13221     13220     13210     13211
     13211     13210     13296     13297
     13220     13317     13318     13219
     13220     13219     13209     13210
     13210     13209     13295     13296
     13219     13318     13319     13218
     13219     13218     13208     13209
     13209     13208     13294     13295
     13218     13319     13320     13217
     13218     13217     13207     13208
     13208     13207     13293     13294
     13217     13320     13321     13216
     13217     13216     13206     13207
     13207     13206     13292     13293
     13216     13321     13322     13215
$ ... 14 like lines cut
*SET_SEGMENT
        48
     23213     23214     23255     23256
     20888     23256     23255     20889
     23212     23213     23256     23257
     20887     23257     23256     20888
     23214     23215     23254     23255
     20889     23255     23254     20890
     20930     23214     23213     20931
     20929     23215     23214     20930
     20931     23213     23212     20932
     23211     23212     23257     23258
     20886     23258     23257     20887
     23215     23216     23253     23254
     20890     23254     23253     20891
     20928     23216     23215     20929
     20932     23212     23211     20933
     23210     23211     23258     23259
     20885     23259     23258     20886
     23216     23217     23252     23253
     20891     23253     23252     20892
$ ... 3152 like lines cut
*CONTACT_TIED_SURFACE_TO_SURFACE_OFFSET_ID
$       ID                                                               heading
       161                                                     Contact Region 24
$     ssid      msid     sstyp     mstyp    sboxid    mboxid       spr       mpr
        47        48         0         0         0         0         1         1
$       fs        fd        dc        vc       vdc    penchk        bt        dt
         0         0         0         0        10         0         0         0
$      sfs       sfm       sst       mst      sfst      sfmt       fsf       vsf
         0         0         0         0         0         0         0         0
$     soft   softscl    lcidab    maxpar     sbopt     depth     bsort    frcfrq
         0         0         0         0         3         5         0         0
$   penmax    tkhopt    shlthk     snlog      isym     i2d3d    sldthk    sldstf
         0         0         0         0         0         0         0         0
*SET_SEGMENT
        49
     13467     13350     13463     13462
     14335     13389     13467     13462
     13529     13352     13465     13444
     13529     13444     14449     13445
     13468     13353     13466     13408
     13468     13408     14413     13409
     13462     13461     14525     14335
     13461     13460     14524     14525
     13460     13459     14523     14524
     13459     13458     14522     14523
     13458     13457     14521     14522
     13457     13456     14520     14521
     13456     13455     14519     14520
     13455     13454     14518     14519
     14518     13454     13589     14517
     13589     13588     14516     14517
     13588     13587     14515     14516
     13587     13586     14514     14515
     13586     13585     14513     14514
$ ... 460 like lines cut
*SET_SEGMENT
        50
     23213     23214     23255     23256
     20888     23256     23255     20889
     23212     23213     23256     23257
     20887     23257     23256     20888
     23214     23215     23254     23255
     20889     23255     23254     20890
     20930     23214     23213     20931
     20929     23215     23214     20930
     20931     23213     23212     20932
     23211     23212     23257     23258
     20886     23258     23257     20887
     23215     23216     23253     23254
     20890     23254     23253     20891
     20928     23216     23215     20929
     20932     23212     23211     20933
     23210     23211     23258     23259
     20885     23259     23258     20886
     23216     23217     23252     23253
     20891     23253     23252     20892
$ ... 3152 like lines cut
*CONTACT_TIED_SURFACE_TO_SURFACE_OFFSET_ID
$       ID                                                               heading
       164                                                     Contact Region 25
$     ssid      msid     sstyp     mstyp    sboxid    mboxid       spr       mpr
        49        50         0         0         0         0         1         1
$       fs        fd        dc        vc       vdc    penchk        bt        dt
         0         0         0         0        10         0         0         0
$      sfs       sfm       sst       mst      sfst      sfmt       fsf       vsf
         0         0         0         0         0         0         0         0
$     soft   softscl    lcidab    maxpar     sbopt     depth     bsort    frcfrq
         0         0         0         0         3         5         0         0
$   penmax    tkhopt    shlthk     snlog      isym     i2d3d    sldthk    sldstf
         0         0         0         0         0         0         0         0
*CONTACT_AUTOMATIC_SINGLE_SURFACE_ID
$       ID                                                               heading
       171                                                      Body Interaction
$     ssid      msid     sstyp     mstyp    sboxid    mboxid       spr       mpr
         0         0         5         0         0         0         0         0
$       fs        fd        dc        vc       vdc    penchk        bt        dt
         0         0         0         0        10         0         0         0
$      sfs       sfm       sst       mst      sfst      sfmt       fsf       vsf
         0         0         0         0         0         0         0         0
$     soft   softscl    lcidab    maxpar     sbopt     depth     bsort    frcfrq
         2         0         0         0         3         5         0         0
$   penmax    tkhopt    shlthk     snlog      isym     i2d3d    sldthk    sldstf
         0         0         0         0         0         0         0         0
*DATABASE_GLSTAT
$       dt    binary      lcur     ioopt     dthff     binhf             unused1
     5E-06         3         0         0         0         0                   0
*DATABASE_SPCFORC
$       dt    binary      lcur     ioopt     dthff     binhf             unused1
     5E-06         3         0         0         0         0                   0
*DATABASE_RCFORC
$       dt    binary      lcur     ioopt     dthff     binhf             unused1
     5E-06         3         0         0         0         0                   0
*DATABASE_NCFORC
$       dt    binary      lcur     ioopt     dthff     binhf             unused1
     5E-06         3         0         0         0         0                   0
*DATABASE_BNDOUT
$       dt    binary      lcur     ioopt     dthff     binhf             unused1
     5E-06         3         0         0         0         0                   0
*DATABASE_NODOUT
$       dt    binary      lcur     ioopt     dthff     binhf             unused1
     5E-06         3         0         0         0         0                   0
*DATABASE_MATSUM
$       dt    binary      lcur     ioopt     dthff     binhf             unused1
     5E-06         3         0         0         0         0                   0
*DATABASE_ELOUT
$       dt    binary      lcur     ioopt     dthff     binhf             unused1
     5E-06         3         0         0         0         0                   0
*DATABASE_JNTFORC
$       dt    binary      lcur     ioopt     dthff     binhf             unused1
     5E-06         3         0         0         0         0                   0
*DATABASE_DEFORC
$       dt    binary      lcur     ioopt     dthff     binhf             unused1
     5E-06         3         0         0         0         0                   0
*DATABASE_TPRINT
$       dt    binary      lcur     ioopt     dthff     binhf             unused1
     5E-06         3         0         0         0         0                   0
*DATABASE_EXTENT_BINARY
$    neiph     neips    maxint    strflg    sigflg    epsflg    rltflg    engflg
         0         0         0        10         1         1         0         0
$   cmpflg    ieverp    beamip     dcomp      shge     stssz    n3thdt   ialemat
         0         0         0         0         0         0         0         0
$  nintsld   pkp_sen      sclp     hydro     msscl     therm    intout    nodout
         0         0         0         0         2         0                    
*DATABASE_BINARY_D3PLOT
$       dt      lcdt      beam     npltc    psetid                       unused1
   0.00025         0         0         0         0                              
$    ioopt                                                               unused2
         0                                                                      
*DATABASE_BINARY_INTFOR
$       dt      lcdt      beam     npltc    psetid                        unused
   0.00025         0         0         0         0                              
*DATABASE_BINARY_D3PROP
$    ifile     imatl     iwall                                           unused2
         2         1         0                                                  
*END
